Circuit: * Z:\home\fritz\Dropbox\Akademie_Traunkirchen\Simulationen\output_filter.asc


Date: Tue Jan 13 12:02:44 2015
Total elapsed time: 0.030 seconds.

tnom = 27
temp = 27
method = trap
totiter = 0
traniter = 0
tranpoints = 0
accept = 0
rejected = 0
matrix size = 4
fillins = 1
solver = Normal

