Circuit: * Z:\home\fritz\Dropbox\Akademie_Traunkirchen\Simulationen\supply_filter.asc


Date: Tue Feb 03 17:11:52 2015
Total elapsed time: 0.040 seconds.

tnom = 27
temp = 27
method = trap
totiter = 0
traniter = 0
tranpoints = 0
accept = 0
rejected = 0
matrix size = 6
fillins = 1
solver = Normal

