Circuit: * Z:\home\fritz\Studium\Akademie_Traunkirchen\Simulationen\test_filter.asc


Date: Wed May 06 12:45:09 2015
Total elapsed time: 0.021 seconds.

tnom = 27
temp = 27
method = trap
totiter = 0
traniter = 0
tranpoints = 0
accept = 0
rejected = 0
matrix size = 6
fillins = 1
solver = Normal

